LTspice 24.1.9 for Windows
Circuit: C:\Users\akash\Documents\git\EDC-flashlight\sims\RED_LED.net
Start Time: Tue Jan 27 22:05:57 2026
solver = Normal
Maximum thread count: 12
tnom = 27
temp = 27
method = trap
Direct Newton iteration for .op point succeeded.
Total elapsed time: 0.209 seconds.

Files loaded:
C:\Users\akash\Documents\git\EDC-flashlight\sims\RED_LED.net
C:\Users\akash\AppData\Local\LTspice\lib\cmp\standard.dio
C:\Users\akash\AppData\Local\LTspice\lib\cmp\standard.bjt

